/*--------------------------------*- C++ -*----------------------------------*\
  =========                 |
  \\      /  F ield         | OpenFOAM: The Open Source CFD Toolbox
   \\    /   O peration     | Website:  https://openfoam.org
    \\  /    A nd           | Version:  12
     \\/     M anipulation  |
\*---------------------------------------------------------------------------*/
FoamFile
{
    format      ascii;
    class       volVectorField;
    object      U;
}
// * * * * * * * * * * * * * * * * * * * * * * * * * * * * * * * * * * * * * //

dimensions      [0 1 -1 0 0 0 0];

internalField   uniform (0 0 0);

UInlet            (0 30 0);

boundaryField
{
    inlet
    {
        type            fixedValue;
        value           uniform $UInlet;
    }

    outlet
    {
        type            zeroGradient;
    }

    bodywork
    {
        type            noSlip;
    }

    frontRightTyreBlender
    {
        type            rotatingWallVelocity;
        origin          (2.20515 -3.241555 0.729127);
        axis            (1 0 0);
        omega           67.887126;
        value           uniform (0 0 0);
    }

    rearRightTyreBlender
    {
        type            rotatingWallVelocity;
        origin          (2.20515 0.4327766 0.729127);
        axis            (1 0 0);
        omega           67.887126;
        value           uniform (0 0 0);
    }

    tarmac
    {
        type            slip;
    }

    "(upperArea|lateralArea)"
    {
        type            freestreamVelocity;
        freestreamValue    uniform $UInlet;
    }

    symmetryPlane
    {
        type            symmetry;
    }
}

// ************************************************************************* //
