/*--------------------------------*- C++ -*----------------------------------*\
  =========                 |
  \\      /  F ield         | OpenFOAM: The Open Source CFD Toolbox
   \\    /   O peration     | Website:  https://openfoam.org
    \\  /    A nd           | Version:  12
     \\/     M anipulation  |
\*---------------------------------------------------------------------------*/
FoamFile
{
    format      ascii;
    class       dictionary;
    object      blockMeshDict;
}

// * * * * * * * * * * * * * * * * * * * * * * * * * * * * * * * * * * * * * //

convertToMeters 1;

vertices
(
    (-5 -7 0.28723)
    (3.203475 -7 0.28723)
    (3.203475 15 0.28723)
    (-5 15 0.28723)
    (-5 -7 8)
    (3.203475 -7 8)
    (3.203475 15 8)
    (-5 15 8)
);

blocks
(
    hex (0 1 2 3 4 5 6 7) (16 42 16) simpleGrading (1 1 1)
);

boundary
(
    tarmac
    {
        type wall;
        faces
        (
            (0 3 2 1)
        );
    }

    upperArea
    {
        type patch;
        faces
        (
            (4 5 6 7)
        );
    }

    inlet
    {
        type patch;
        faces
        (
            (5 4 0 1)
        );
    }

    outlet
    {
        type patch;
        faces
        (
            (3 7 6 2)
        );
    }

    lateralArea
    {
        type patch;
        faces
        (
            (0 4 7 3)
        );
    }

    symmetryPlane
    {
        type symmetry;
        faces
        (
            (6 5 1 2)
        );
    }
);

// ************************************************************************* //
