/*--------------------------------*- C++ -*----------------------------------*\
  =========                 |
  \\      /  F ield         | OpenFOAM: The Open Source CFD Toolbox
   \\    /   O peration     | Website:  https://openfoam.org
    \\  /    A nd           | Version:  12
     \\/     M anipulation  |
\*---------------------------------------------------------------------------*/
FoamFile
{
    format      ascii;
    class       polyBoundaryMesh;
    location    "constant/polyMesh";
    object      boundary;
}
// * * * * * * * * * * * * * * * * * * * * * * * * * * * * * * * * * * * * * //

8
(
    tarmac
    {
        type            wall;
        inGroups        List<word> 1(wall);
        nFaces          168;
        startFace       7432;
    }
    upperArea
    {
        type            patch;
        nFaces          168;
        startFace       7600;
    }
    inlet
    {
        type            patch;
        nFaces          0;
        startFace       7768;
    }
    outlet
    {
        type            patch;
        nFaces          128;
        startFace       7768;
    }
    lateralArea
    {
        type            patch;
        nFaces          0;
        startFace       7896;
    }
    symmetryPlane
    {
        type            symmetry;
        inGroups        List<word> 1(symmetry);
        nFaces          336;
        startFace       7896;
    }
    procBoundary3to1
    {
        type            processor;
        inGroups        List<word> 1(processor);
        nFaces          128;
        startFace       8232;
        matchTolerance  0.0001;
        myProcNo        3;
        neighbProcNo    1;
    }
    procBoundary3to2
    {
        type            processor;
        inGroups        List<word> 1(processor);
        nFaces          336;
        startFace       8360;
        matchTolerance  0.0001;
        myProcNo        3;
        neighbProcNo    2;
    }
)

// ************************************************************************* //
